# avogadro generated ORCA input file 
# Basic Mode
# 
! RHF SP def2-SVP OPT FREQ

* xyz 0 1
   C       -1.79103        1.02503       -1.18507
   C       -1.89231        1.81599       -2.32948
   C       -0.74431        2.16096       -3.04267
   H       -2.86564        2.16346       -2.66545
   C       -0.54175        0.57905       -0.75385
   H       -2.68545        0.75626       -0.62941
   N        0.50496        1.71498       -2.61145
   H       -0.82322        2.77721       -3.93429
   C        0.60624        0.92402       -1.46704
   H       -0.46284       -0.03719        0.13777
   H        1.57957        0.57655       -1.13107
*

