11
Coordinates from ORCA-job py E -246.496518601846
  C      -1.791030      1.025030     -1.185070
  C      -1.892310      1.815990     -2.329480
  C      -0.744310      2.160960     -3.042670
  H      -2.865640      2.163460     -2.665450
  C      -0.541750      0.579050     -0.753850
  H      -2.685450      0.756260     -0.629410
  N       0.504960      1.714980     -2.611450
  H      -0.823220      2.777210     -3.934290
  C       0.606240      0.924020     -1.467040
  H      -0.462840     -0.037190      0.137770
  H       1.579570      0.576550     -1.131070
11
Coordinates from ORCA-job py E -246.511515305858
  C      -1.802892      1.021468     -1.177701
  C      -1.883184      1.804427     -2.314122
  C      -0.714995      2.123355     -2.992655
  H      -2.840465      2.163307     -2.669745
  C      -0.556146      0.589030     -0.765934
  H      -2.693532      0.753832     -0.624391
  N       0.478262      1.706956     -2.594863
  H      -0.755003      2.734155     -3.883259
  C       0.559239      0.956314     -1.506065
  H      -0.450357     -0.025726      0.118676
  H       1.543294      0.629203     -1.201950
11
Coordinates from ORCA-job py E -246.511773964743
  C      -1.806262      1.020456     -1.175607
  C      -1.887017      1.805444     -2.314930
  C      -0.712694      2.118543     -2.985996
  H      -2.839812      2.167926     -2.676649
  C      -0.556413      0.586780     -0.762580
  H      -2.697008      0.752787     -0.622233
  N       0.474077      1.705698     -2.592262
  H      -0.743912      2.730686     -3.880154
  C       0.552492      0.959791     -1.509963
  H      -0.442436     -0.027768      0.120252
  H       1.543204      0.635977     -1.211890
11
Coordinates from ORCA-job py E -246.511796923474
  C      -1.805808      1.020592     -1.175889
  C      -1.888679      1.806137     -2.315650
  C      -0.713828      2.118825     -2.986207
  H      -2.840524      2.169245     -2.678458
  C      -0.556114      0.585677     -0.761012
  H      -2.696645      0.752895     -0.622458
  N       0.474914      1.705950     -2.592782
  H      -0.744323      2.730976     -3.880508
  C       0.552383      0.959135     -1.508979
  H      -0.440629     -0.028757      0.121382
  H       1.543473      0.635644     -1.211448
11
Coordinates from ORCA-job py E -246.511800280956
  C      -1.805393      1.020717     -1.176147
  C      -1.889420      1.806248     -2.315680
  C      -0.714335      2.118714     -2.985952
  H      -2.840573      2.169928     -2.679454
  C      -0.556308      0.585285     -0.760403
  H      -2.696352      0.752983     -0.622640
  N       0.475145      1.706019     -2.592926
  H      -0.744151      2.730753     -3.880210
  C       0.551943      0.958963     -1.508647
  H      -0.439530     -0.029124      0.121725
  H       1.543193      0.635835     -1.211679
11
Coordinates from ORCA-job py E -246.511800523438
  C      -1.805365      1.020725     -1.176164
  C      -1.889513      1.806182     -2.315565
  C      -0.714438      2.118672     -2.985872
  H      -2.840443      2.170077     -2.679696
  C      -0.556464      0.585277     -0.760362
  H      -2.696340      0.752986     -0.622647
  N       0.475066      1.705995     -2.592877
  H      -0.744045      2.730699     -3.880150
  C       0.551822      0.958937     -1.508588
  H      -0.439220     -0.029141      0.121695
  H       1.543158      0.635910     -1.211783
