21
Coordinates from ORCA-job aspirin E -644.446653043654
  C       1.130280      0.194430      0.099490
  C       2.611740      0.263490      0.319960
  O       3.192100     -0.219870      1.285220
  O       3.198310      1.002400     -0.701290
  C       4.593220      1.059930     -0.615390
  C       5.161500      2.306840     -0.351320
  C       6.549690      2.427060     -0.267420
  C       7.366330      1.310080     -0.461180
  C       6.798290      0.066030     -0.744720
  C       5.405550     -0.059910     -0.824110
  C       4.815020     -1.368270     -1.164680
  O       5.228920     -2.345050     -0.330200
  O       4.029360     -1.536710     -2.079190
  H       0.751900     -0.751170      0.497300
  H       0.901520      0.219020     -0.969830
  H       0.645850      1.033990      0.602760
  H       4.529880      3.179190     -0.207470
  H       6.997470      3.396150     -0.057770
  H       8.447940      1.414550     -0.406210
  H       7.443190     -0.790490     -0.928930
  H       5.640680     -2.004290      0.489060
21
Coordinates from ORCA-job aspirin E -644.464521831745
  C       1.120276      0.224475      0.077870
  C       2.601118      0.243029      0.293738
  O       3.172561     -0.300603      1.170824
  O       3.225764      0.986966     -0.647776
  C       4.603248      1.061440     -0.582615
  C       5.162556      2.302306     -0.330532
  C       6.543420      2.437404     -0.284830
  C       7.359545      1.334023     -0.488573
  C       6.792797      0.091811     -0.737894
  C       5.407577     -0.053180     -0.791598
  C       4.812281     -1.393797     -1.093172
  O       5.265010     -2.384773     -0.335105
  O       4.040799     -1.587549     -1.963404
  H       0.719141     -0.721223      0.434690
  H       0.888273      0.330004     -0.978866
  H       0.668854      1.045696      0.634430
  H       4.522578      3.159018     -0.176754
  H       6.982942      3.406562     -0.091850
  H       8.435176      1.442860     -0.457932
  H       7.432828     -0.761959     -0.914275
  H       5.681996     -2.065113      0.447705
21
Coordinates from ORCA-job aspirin E -644.465461686047
  C       1.095934      0.270712      0.053136
  C       2.577873      0.177681      0.252735
  O       3.122159     -0.449022      1.084862
  O       3.241515      0.957697     -0.614372
  C       4.609183      1.045810     -0.552205
  C       5.157461      2.291021     -0.310619
  C       6.535818      2.446963     -0.299157
  C       7.361488      1.355503     -0.514477
  C       6.802940      0.106106     -0.736590
  C       5.421802     -0.061387     -0.766442
  C       4.838703     -1.419747     -1.053204
  O       5.331305     -2.408564     -0.323081
  O       3.980777     -1.609060     -1.832306
  H       0.635307     -0.659260      0.374622
  H       0.860970      0.460834     -0.990360
  H       0.710081      1.088901      0.662050
  H       4.503265      3.134576     -0.145379
  H       6.964135      3.423491     -0.119337
  H       8.435924      1.475493     -0.507395
  H       7.448035     -0.745374     -0.907664
  H       5.804066     -2.084974      0.429263
21
Coordinates from ORCA-job aspirin E -644.465634021222
  C       1.063985      0.315015      0.035657
  C       2.538170      0.186180      0.277399
  O       3.048025     -0.460102      1.118558
  O       3.241830      0.942920     -0.568343
  C       4.601024      1.031982     -0.519638
  C       5.146858      2.281789     -0.301896
  C       6.523883      2.448441     -0.312834
  C       7.354143      1.360104     -0.519339
  C       6.796973      0.105444     -0.710294
  C       5.418438     -0.076279     -0.725044
  C       4.843820     -1.445871     -1.006344
  O       5.468870     -2.451553     -0.414863
  O       3.985850     -1.639683     -1.784756
  H       0.568508     -0.587703      0.380847
  H       0.858823      0.496492     -1.015653
  H       0.692389      1.160564      0.616788
  H       4.482843      3.118056     -0.136166
  H       6.945650      3.431800     -0.153322
  H       8.428267      1.483935     -0.530064
  H       7.443651     -0.748175     -0.870575
  H       5.986739     -2.155955      0.323961
21
Coordinates from ORCA-job aspirin E -644.466297570005
  C       1.081973      0.275368      0.036758
  C       2.555473      0.214951      0.299849
  O       3.079198     -0.398501      1.160455
  O       3.239913      0.966020     -0.574126
  C       4.602384      1.046113     -0.533229
  C       5.156682      2.293048     -0.310540
  C       6.535685      2.447809     -0.304724
  C       7.359884      1.352678     -0.506895
  C       6.795435      0.102432     -0.711807
  C       5.414299     -0.068224     -0.735094
  C       4.831198     -1.425031     -1.037781
  O       5.409539     -2.440395     -0.412124
  O       3.951885     -1.597289     -1.801474
  H       0.616838     -0.633032      0.409374
  H       0.884300      0.404678     -1.023783
  H       0.670310      1.128581      0.578239
  H       4.498864      3.134864     -0.148518
  H       6.963743      3.427412     -0.139367
  H       8.434894      1.469079     -0.509885
  H       7.437797     -0.752019     -0.881399
  H       5.918445     -2.151143      0.330152
21
Coordinates from ORCA-job aspirin E -644.466290962627
  C       1.085919      0.271195      0.038128
  C       2.562275      0.190671      0.273485
  O       3.089942     -0.400829      1.147209
  O       3.236308      0.970969     -0.585766
  C       4.599159      1.049547     -0.538744
  C       5.155371      2.296191     -0.314199
  C       6.534862      2.448055     -0.299370
  C       7.358481      1.350891     -0.496107
  C       6.792731      0.101690     -0.706336
  C       5.410795     -0.066447     -0.735202
  C       4.825136     -1.419261     -1.035025
  O       5.412853     -2.437633     -0.422050
  O       3.926858     -1.586204     -1.778536
  H       0.612427     -0.619048      0.442426
  H       0.871439      0.375671     -1.021775
  H       0.698853      1.146283      0.563195
  H       4.497905      3.139439     -0.158695
  H       6.963463      3.427108     -0.132303
  H       8.433719      1.464722     -0.491914
  H       7.434980     -0.752682     -0.875598
  H       5.935264     -2.152927      0.311258
21
Coordinates from ORCA-job aspirin E -644.466485000594
  C       1.084779      0.263572      0.025006
  C       2.558203      0.199331      0.282240
  O       3.084629     -0.424878      1.133050
  O       3.236472      0.988908     -0.564366
  C       4.598753      1.058942     -0.522987
  C       5.162859      2.303558     -0.307424
  C       6.542909      2.449999     -0.304920
  C       7.360386      1.348885     -0.503758
  C       6.787004      0.101741     -0.704242
  C       5.404385     -0.061596     -0.722069
  C       4.810714     -1.413016     -1.011120
  O       5.421276     -2.435743     -0.429117
  O       3.890093     -1.576126     -1.727309
  H       0.614674     -0.631694      0.421724
  H       0.885024      0.369814     -1.037737
  H       0.681786      1.134178      0.545620
  H       4.508917      3.149392     -0.150671
  H       6.976343      3.428185     -0.144875
  H       8.436207      1.457231     -0.507774
  H       7.424450     -0.756120     -0.874956
  H       5.968875     -2.157162      0.289766
21
Coordinates from ORCA-job aspirin E -644.466542337217
  C       1.080383      0.260731      0.020327
  C       2.546362      0.232837      0.322532
  O       3.059348     -0.348378      1.209461
  O       3.237272      0.985789     -0.545823
  C       4.598585      1.051775     -0.510923
  C       5.161962      2.296723     -0.298022
  C       6.541134      2.446811     -0.299949
  C       7.360292      1.348264     -0.501104
  C       6.788194      0.101082     -0.701353
  C       5.406369     -0.067262     -0.718046
  C       4.817554     -1.417422     -1.028704
  O       5.440502     -2.450050     -0.480008
  O       3.892270     -1.571992     -1.739563
  H       0.605231     -0.601292      0.478977
  H       0.911149      0.277103     -1.052985
  H       0.657605      1.169368      0.452751
  H       4.505325      3.139621     -0.136723
  H       6.972056      3.426087     -0.139878
  H       8.435872      1.458095     -0.508581
  H       7.427522     -0.753929     -0.879415
  H       5.993755     -2.186560      0.241110
21
Coordinates from ORCA-job aspirin E -644.466687959524
  C       1.082542      0.255914      0.017222
  C       2.548969      0.225626      0.315658
  O       3.064822     -0.359171      1.199031
  O       3.235701      0.993975     -0.544620
  C       4.597221      1.057128     -0.509869
  C       5.163951      2.300500     -0.294536
  C       6.543489      2.447474     -0.295890
  C       7.360173      1.347316     -0.499853
  C       6.784957      0.101714     -0.701713
  C       5.402482     -0.064016     -0.716131
  C       4.808972     -1.412462     -1.020093
  O       5.441494     -2.447458     -0.485639
  O       3.869658     -1.565087     -1.713915
  H       0.602199     -0.590028      0.499715
  H       0.912710      0.242552     -1.056179
  H       0.666695      1.180179      0.422459
  H       4.509045      3.144640     -0.132797
  H       6.976460      3.425697     -0.134803
  H       8.436032      1.454377     -0.507576
  H       7.422958     -0.753804     -0.881724
  H       6.008212     -2.187668      0.225334
21
Coordinates from ORCA-job aspirin E -644.466891188537
  C       1.086929      0.244527      0.009916
  C       2.550910      0.221867      0.317227
  O       3.069366     -0.360768      1.200378
  O       3.233205      1.009268     -0.533013
  C       4.594732      1.065920     -0.500083
  C       5.167992      2.305926     -0.279787
  C       6.547884      2.447956     -0.284545
  C       7.359700      1.345574     -0.497941
  C       6.778476      0.103633     -0.704453
  C       5.394991     -0.058074     -0.712555
  C       4.792704     -1.402329     -1.010495
  O       5.443933     -2.444720     -0.512421
  O       3.826736     -1.548781     -1.669588
  H       0.589712     -0.540469      0.571392
  H       0.929448      0.118342     -1.058580
  H       0.682103      1.214268      0.304440
  H       4.516434      3.151544     -0.112525
  H       6.984704      3.423860     -0.119762
  H       8.435977      1.447773     -0.509376
  H       7.414395     -0.751497     -0.893075
  H       6.038410     -2.196421      0.178928
21
Coordinates from ORCA-job aspirin E -644.467065831756
  C       1.090725      0.235674      0.006911
  C       2.551255      0.226208      0.328209
  O       3.071283     -0.347775      1.215803
  O       3.231560      1.018037     -0.522255
  C       4.593052      1.071121     -0.491937
  C       5.170418      2.308037     -0.263551
  C       6.550418      2.447093     -0.271162
  C       7.358943      1.344337     -0.496457
  C       6.773957      0.105648     -0.710416
  C       5.389907     -0.053601     -0.714035
  C       4.782294     -1.394511     -1.013483
  O       5.442486     -2.442545     -0.538678
  O       3.802957     -1.536056     -1.654339
  H       0.574912     -0.472569      0.647788
  H       0.949666     -0.018636     -1.041600
  H       0.696325      1.239676      0.169480
  H       4.521459      3.153968     -0.088109
  H       6.989966      3.420692     -0.100143
  H       8.435427      1.443740     -0.511060
  H       7.408814     -0.748188     -0.908216
  H       6.052916     -2.202950      0.141331
21
Coordinates from ORCA-job aspirin E -644.467248729735
  C       1.093695      0.230150      0.008061
  C       2.550740      0.234125      0.343125
  O       3.072544     -0.335513      1.232016
  O       3.231197      1.021464     -0.512337
  C       4.592685      1.074039     -0.484212
  C       5.172079      2.308178     -0.246275
  C       6.552072      2.445632     -0.257908
  C       7.358334      1.343852     -0.496754
  C       6.771394      0.107912     -0.719581
  C       5.387119     -0.049397     -0.719609
  C       4.776691     -1.387941     -1.026293
  O       5.435027     -2.439095     -0.556184
  O       3.797284     -1.525856     -1.667481
  H       0.558759     -0.393085      0.717861
  H       0.969964     -0.152499     -1.003999
  H       0.710530      1.250205      0.032882
  H       4.525638      3.153773     -0.060277
  H       6.993916      3.416770     -0.079148
  H       8.434834      1.442460     -0.515101
  H       7.405317     -0.744401     -0.926949
  H       6.048920     -2.203375      0.122241
21
Coordinates from ORCA-job aspirin E -644.467353759816
  C       1.095765      0.226346      0.010259
  C       2.550236      0.239828      0.355309
  O       3.073018     -0.338427      1.237825
  O       3.232084      1.024459     -0.500177
  C       4.593458      1.077489     -0.475933
  C       5.174450      2.309019     -0.230180
  C       6.554589      2.444777     -0.247309
  C       7.358588      1.344231     -0.498789
  C       6.769921      0.110403     -0.728331
  C       5.385596     -0.044435     -0.724266
  C       4.773060     -1.380933     -1.040829
  O       5.423831     -2.433985     -0.565905
  O       3.800085     -1.514214     -1.691827
  H       0.543265     -0.311595      0.774406
  H       0.985018     -0.270604     -0.953549
  H       0.725577      1.245253     -0.091439
  H       4.530637      3.154253     -0.033660
  H       6.998948      3.413582     -0.062354
  H       8.435027      1.442739     -0.521659
  H       7.401535     -0.741597     -0.944146
  H       6.034053     -2.199188      0.116635
21
Coordinates from ORCA-job aspirin E -644.467370685831
  C       1.096347      0.224118      0.011629
  C       2.551237      0.238678      0.355374
  O       3.073897     -0.348190      1.232556
  O       3.232826      1.027044     -0.495512
  C       4.594361      1.079709     -0.473382
  C       5.176088      2.310556     -0.226810
  C       6.556463      2.445221     -0.245793
  C       7.359527      1.344674     -0.499380
  C       6.769994      0.111311     -0.730205
  C       5.385641     -0.042038     -0.725023
  C       4.772268     -1.377497     -1.045747
  O       5.417079     -2.431270     -0.564966
  O       3.804443     -1.507979     -1.704776
  H       0.541121     -0.290802      0.789643
  H       0.985198     -0.301277     -0.937199
  H       0.729615      1.240532     -0.120027
  H       4.533215      3.155988     -0.028055
  H       7.001845      3.413425     -0.060100
  H       8.435983      1.442952     -0.523076
  H       7.399848     -0.741562     -0.947664
  H       6.021746     -2.196193      0.122594
21
Coordinates from ORCA-job aspirin E -644.467378253149
  C       1.096720      0.222338      0.012880
  C       2.552919      0.235353      0.351853
  O       3.075572     -0.360236      1.223568
  O       3.233462      1.029561     -0.492892
  C       4.595311      1.081562     -0.472701
  C       5.177427      2.312238     -0.226979
  C       6.558044      2.446057     -0.246679
  C       7.360575      1.345252     -0.499851
  C       6.770471      0.111842     -0.730191
  C       5.386144     -0.040364     -0.724845
  C       4.772431     -1.375174     -1.048033
  O       5.411252     -2.429272     -0.560495
  O       3.809887     -1.503572     -1.715171
  H       0.543559     -0.288539      0.795040
  H       0.981107     -0.307773     -0.932839
  H       0.730205      1.238519     -0.120992
  H       4.534948      3.157946     -0.028154
  H       7.003933      3.414182     -0.061739
  H       8.437062      1.443291     -0.523441
  H       7.398738     -0.742297     -0.947221
  H       6.008974     -2.193514      0.132963
21
Coordinates from ORCA-job aspirin E -644.467379274992
  C       1.096964      0.221674      0.012874
  C       2.553584      0.233653      0.350168
  O       3.076291     -0.364549      1.220228
  O       3.233567      1.030725     -0.491928
  C       4.595607      1.082165     -0.472418
  C       5.177893      2.312887     -0.227488
  C       6.558583      2.446488     -0.247448
  C       7.360933      1.345466     -0.500009
  C       6.770563      0.112020     -0.729850
  C       5.386259     -0.039894     -0.724371
  C       4.772410     -1.374453     -1.047883
  O       5.409743     -2.428792     -0.559008
  O       3.810961     -1.502138     -1.716830
  H       0.545280     -0.290692      0.795078
  H       0.979093     -0.306320     -0.933723
  H       0.730122      1.238242     -0.117666
  H       4.535436      3.158683     -0.028993
  H       7.004537      3.414702     -0.063117
  H       8.437438      1.443309     -0.523544
  H       7.398284     -0.742630     -0.946416
  H       6.005192     -2.193144      0.136425
21
Coordinates from ORCA-job aspirin E -644.467379377546
  C       1.096995      0.221696      0.012954
  C       2.553733      0.233236      0.349769
  O       3.076615     -0.365343      1.219472
  O       3.233568      1.030838     -0.491975
  C       4.595675      1.082169     -0.472636
  C       5.177914      2.312940     -0.227813
  C       6.558603      2.446587     -0.247686
  C       7.360983      1.345533     -0.500058
  C       6.770632      0.112051     -0.729733
  C       5.386335     -0.039887     -0.724391
  C       4.772589     -1.374457     -1.047885
  O       5.409542     -2.428765     -0.558451
  O       3.811553     -1.502158     -1.717450
  H       0.545971     -0.292266      0.794596
  H       0.978392     -0.304384     -0.934598
  H       0.729880      1.238462     -0.115291
  H       4.535387      3.158711     -0.029444
  H       7.004476      3.414860     -0.063475
  H       8.437491      1.443356     -0.523514
  H       7.398305     -0.742698     -0.946048
  H       6.004101     -2.193080      0.137736
