# avogadro generated ORCA input file 
# Basic Mode
# 
! RHF OPT FREQ def2-SVP 

* xyz 0 1
   C        1.13028        0.19443        0.09949
   C        2.61174        0.26349        0.31996
   O        3.19210       -0.21987        1.28522
   O        3.19831        1.00240       -0.70129
   C        4.59322        1.05993       -0.61539
   C        5.16150        2.30684       -0.35132
   C        6.54969        2.42706       -0.26742
   C        7.36633        1.31008       -0.46118
   C        6.79829        0.06603       -0.74472
   C        5.40555       -0.05991       -0.82411
   C        4.81502       -1.36827       -1.16468
   O        5.22892       -2.34505       -0.33020
   O        4.02936       -1.53671       -2.07919
   H        0.75190       -0.75117        0.49730
   H        0.90152        0.21902       -0.96983
   H        0.64585        1.03399        0.60276
   H        4.52988        3.17919       -0.20747
   H        6.99747        3.39615       -0.05777
   H        8.44794        1.41455       -0.40621
   H        7.44319       -0.79049       -0.92893
   H        5.64068       -2.00429        0.48906
*

