! B3LYP def2-SVP Freq CPCM(water) TightSCF

* xyz 0 1
Na       0.00000       0.00000       0.00000
C        1.30000       0.00000       0.00000
C        2.50000       1.20000       0.00000
O        3.70000       1.20000       0.00000
O        2.50000      -1.20000       0.00000
H        1.30000       2.00000       0.00000
H        1.30000       1.20000       1.00000
H        1.30000       1.20000      -1.00000
*