# avogadro generated ORCA input file 
# Basic Mode
# 
! RHF OPT FREQ def2-SVP 

* xyz 0 1
   C        4.00644        1.11162        0.00000
   C        3.99115        2.51232       -0.00000
   C        2.77303        3.21182       -0.00000
   C        1.57790        2.46764        0.00000
   O        0.32861        3.03408        0.00000
   C        1.59805        1.07274        0.00000
   C        2.81303        0.39403        0.00000
   C        2.68146        4.70137       -0.00000
   O        3.83186        5.40013       -0.00000
   O        1.59332        5.26314        0.00000
   H        4.95457        0.57747       -0.00000
   H        4.95458        3.00722        0.00000
   H        0.42624        4.01340       -0.00000
   H        0.66229        0.51904       -0.00000
   H        2.82684       -0.69321       -0.00000
   H        4.66681        4.90709        0.00000
*

